Version 4
SHEET 1 2180 696
WIRE -176 -48 -176 -96
WIRE 368 64 320 64
WIRE -176 80 -176 32
WIRE 96 80 96 -16
WIRE 96 80 -64 80
WIRE 256 80 96 80
WIRE 352 96 320 96
WIRE 256 112 208 112
WIRE 384 128 320 128
WIRE 464 128 384 128
WIRE 624 128 544 128
WIRE 784 128 624 128
WIRE 384 160 384 128
WIRE 208 272 208 112
WIRE 384 272 384 240
WIRE 384 272 208 272
WIRE 384 288 384 272
WIRE 752 288 704 288
WIRE 640 304 576 304
WIRE -64 320 -64 80
WIRE 736 320 704 320
WIRE 624 336 624 128
WIRE 640 336 624 336
WIRE 864 352 864 128
WIRE 864 352 704 352
WIRE 976 352 864 352
WIRE 384 384 384 368
WIRE 384 384 128 384
WIRE 384 416 384 384
WIRE 976 432 976 352
WIRE 272 480 224 480
WIRE -64 496 -64 400
WIRE 96 496 96 464
WIRE 96 496 48 496
WIRE 160 496 96 496
WIRE 256 512 224 512
WIRE 128 528 128 384
WIRE 160 528 128 528
WIRE 384 544 384 496
WIRE 384 544 224 544
WIRE 448 544 384 544
WIRE 576 544 576 304
WIRE 576 544 528 544
WIRE 784 544 576 544
WIRE 912 544 864 544
WIRE 976 544 976 512
WIRE 912 592 912 544
FLAG -176 80 0
FLAG 352 96 0
FLAG -176 -96 5V
FLAG 368 64 5V
FLAG 256 512 0
FLAG 272 480 5V
FLAG 736 320 0
FLAG 752 288 5V
FLAG -64 496 0
FLAG 912 672 0
FLAG 976 544 0
FLAG 48 576 0
SYMBOL voltage -176 -64 R0
WINDOW 123 0 0 Left 0
WINDOW 39 0 0 Left 0
SYMATTR InstName V1
SYMATTR Value 5
SYMBOL res 368 272 R0
SYMATTR InstName RGain
SYMATTR Value 4k
SYMBOL res 560 112 R90
WINDOW 0 0 56 VBottom 2
WINDOW 3 32 56 VTop 2
SYMATTR InstName R1
SYMATTR Value 2k
SYMBOL res 368 144 R0
SYMATTR InstName R2
SYMATTR Value 100k
SYMBOL res 368 400 R0
SYMATTR InstName R3
SYMATTR Value 100k
SYMBOL res 544 528 R90
WINDOW 0 0 56 VBottom 2
WINDOW 3 32 56 VTop 2
SYMATTR InstName R4
SYMATTR Value 2k
SYMBOL res 880 112 R90
WINDOW 0 0 56 VBottom 2
WINDOW 3 32 56 VTop 2
SYMATTR InstName R5
SYMATTR Value 100k
SYMBOL res 880 528 R90
WINDOW 0 0 56 VBottom 2
WINDOW 3 32 56 VTop 2
SYMATTR InstName R6
SYMATTR Value 100k
SYMBOL voltage -64 304 R0
WINDOW 123 0 0 Left 0
WINDOW 39 0 0 Left 0
SYMATTR InstName Vin
SYMATTR Value 2.50025
SYMBOL res 960 416 R0
SYMATTR InstName R7
SYMATTR Value 100k
SYMBOL TLC081 288 96 R0
SYMATTR InstName U1
SYMBOL TLC081 672 320 R0
SYMATTR InstName U2
SYMBOL TLC081 192 512 R0
SYMATTR InstName U3
SYMBOL voltage 912 576 R0
WINDOW 123 0 0 Left 0
WINDOW 39 0 0 Left 0
SYMATTR InstName V3
SYMATTR Value 2.3
SYMBOL voltage 48 480 R0
WINDOW 123 0 0 Left 0
WINDOW 39 0 0 Left 0
SYMATTR InstName Vin1
SYMATTR Value 2.49975
TEXT -208 616 Left 2 !.tran 0 0.5 0 100e-6
TEXT 1000 680 Left 2 ;2.5V-OPamp Lowerbound-K*V at rest
