Version 4
SHEET 1 880 680
WIRE 256 -192 208 -192
WIRE 256 -16 256 -48
WIRE 112 32 -32 32
WIRE -32 112 -32 32
FLAG 128 -192 0
FLAG -32 192 0
FLAG 256 80 0
SYMBOL voltage -32 96 R0
WINDOW 123 0 0 Left 0
WINDOW 39 0 0 Left 0
SYMATTR InstName V1
SYMATTR Value PULSE(0 3.3 0 1n 1n 0.05 0.1 100)
SYMBOL res 208 16 R90
WINDOW 0 0 56 VBottom 2
WINDOW 3 32 56 VTop 2
SYMATTR InstName R2
SYMATTR Value 1000
SYMBOL diode 240 -112 R0
SYMATTR InstName D2
SYMBOL res 240 -208 R0
SYMATTR InstName R3
SYMATTR Value 10
SYMBOL voltage 224 -192 R90
WINDOW 0 -32 56 VBottom 2
WINDOW 3 32 56 VTop 2
WINDOW 123 0 0 Left 0
WINDOW 39 0 0 Left 0
SYMATTR InstName V2
SYMATTR Value 3.3
SYMBOL Analog_devices\\BCP56 192 -16 R0
SYMATTR InstName Q1
SYMATTR Value 2N3019
TEXT -64 328 Left 2 !.tran 0 0.5 0 1e-6
